33

Fe -0.07435165 -0.33492148 -0.00000279
N -1.59432086 1.47958880 0.00000018
C -2.94141766 1.54111298 0.00000009
C -3.62036838 2.76926439 0.00000001
C -2.89177253 3.94897161 0.00000001
C -1.51857716 3.89423705 0.00000007
C -0.86692695 2.65011588 0.00000019
C 0.57763047 2.59121299 0.00000023
C 1.38225495 3.75140496 0.00000006
C 2.75526697 3.66141216 -0.00000000
C 3.35349976 2.39530148 0.00000001
C 2.52258930 1.29712417 0.00000020
N 1.18588708 1.36283117 0.00000038
H -4.69290456 2.83506897 -0.00000002
H -3.40631628 4.89890795 -0.00000003
H -0.95979563 4.81237161 0.00000005
H 0.93338052 4.72991648 -0.00000000
H 3.36154502 4.55514190 -0.00000006
H 4.42529717 2.27999476 -0.00000007
H 2.92973457 0.29253836 0.00000025
N -3.66206860 0.36820381 0.00000006
C -3.08939216 -0.95032692 0.00000014
H -3.41523408 -1.50398936 0.88717775
H -3.41523368 -1.50398930 -0.88717767
H -1.99191306 -0.90501456 0.00000051
C -5.10170537 0.28387262 0.00000001
H -5.43994514 -0.26473840 0.88601532
H -5.43994509 -0.26473841 -0.88601532
H -5.58522396 1.25122079 -0.00000001
C 0.92834978 -2.09340277 -0.61778515
C 0.92835048 -2.09340178 0.61778532
H 1.13681328 -2.42197352 -1.60798448
H 1.13681346 -2.42197239 1.60798477
