15
Properties=species:S:1:pos:R:3 pbc="F F F"
C       -0.63686250      -1.32554449      -0.53070333
C       -1.05529584      -0.04053159      -0.25244791
C        0.13430457       0.68045126       0.12813035
C        1.17591855      -0.23191847       0.05993128
O        0.71902056      -1.46439989      -0.32576344
C        2.58795593      -0.06545411       0.37702363
Cl       3.47152197      -1.56556980       0.71429862
Cl       0.18918878       2.33205603       0.53339056
C       -2.42419751       0.54414824      -0.30139282
Cl      -3.07822560       1.03336171       1.29264469
H       -1.25161057      -2.15858957      -0.85808470
H        2.65480010       0.58056268       1.25701149
H        3.07896271       0.43558048      -0.46474182
H       -2.44408720       1.44336055      -0.92685082
H       -3.12139395      -0.19751304      -0.70244578
