11
Properties=species:S:1:pos:R:3 pbc="F F F"
C        2.25405702       0.31092835      -0.22923006
N        1.19979640       1.01561610      -0.51635949
N        0.08570445       0.31544856      -0.14953536
C       -1.28418605       0.60452875      -0.23200661
S       -2.09157321       1.95698574      -0.82898065
N       -1.83877693      -0.52100480       0.31102135
N       -0.93051113      -1.47893450       0.72115018
C        0.25097473      -0.93245918       0.42311003
S        1.93342486      -1.27596616       0.51900504
H        3.25885289       0.67530973      -0.43616630
H       -2.83776303      -0.67045260       0.41799187
