13
Properties=species:S:1:pos:R:3 pbc="F F F"
C        0.13532705      -1.59909971      -0.30451911
C       -1.06984584      -0.91238916      -0.18873435
C       -1.04679620       0.47110817       0.07655821
C        0.16900537       1.16041673       0.22447042
C        1.38032612       0.46713464       0.10750777
C        1.35901950      -0.93086465      -0.16053886
Cl       2.80854854      -1.82708777      -0.31325912
Cl       2.86897985       1.29504329       0.28553252
Br       0.04762007       3.04634285       0.58410790
O       -2.21604152       1.12233249       0.18601641
Cl      -2.58136710      -1.69306500      -0.35801148
H        0.12080181      -2.66310638      -0.50850603
H       -1.97557766       2.06323451       0.36937571
