23
Properties=species:S:1:pos:R:3 pbc="F F F"
C       -1.71457005      -0.82526598       1.03924943
C       -1.67001284      -0.35239115      -0.25985549
C       -0.46017879       0.16522442      -0.77136331
C        0.66927128       0.27716132       0.06490729
C        0.60208012      -0.22061596       1.36282560
C       -0.57903711      -0.77477270       1.86022653
C       -0.61831997      -1.34178295       3.25448736
O       -0.31650458      -2.72506730       3.18816971
O       -0.45121254       0.52499918      -2.09014366
C        0.82135533       0.55256819      -2.80202663
C        1.32779784       1.96175280      -2.68704366
O        1.86341894       2.43742898      -1.69681844
O        1.00194689       2.69831368      -3.78505413
H       -2.63469871      -1.24977818       1.44624463
H       -2.53851470      -0.38996504      -0.91355037
H        1.57259737       0.76034006      -0.29627072
H        1.48008871      -0.17570139       2.01044165
H       -1.62811939      -1.20137841       3.66262281
H        0.13804255      -0.83114183       3.86419154
H       -0.33544758      -3.08400892       4.08922781
H        0.59548944       0.31937012      -3.84787393
H        1.55664567      -0.13478600      -2.36014277
H        1.31788214       3.60949703      -3.62006414
