23
Properties=species:S:1:pos:R:3 pbc="F F F"
C       -0.46527372       1.93220935       0.50920540
C       -0.59373207       0.57215655      -0.06765727
C        0.42865234      -0.22166390      -0.45916828
C       -0.07965913      -1.48858963      -1.04278432
O        0.57666161      -2.40861118      -1.50440778
C       -1.61207613      -1.44256270      -0.94194255
C       -1.93201656      -0.06006671      -0.36531809
O       -2.64184991       0.78695405      -1.26452719
C        1.89176384       0.10723335      -0.39318833
C        2.52369472      -0.02467992       0.98597222
C        1.89246609      -0.46933910       2.08197257
H        0.09667826       1.91653684       1.45496178
H        0.06974688       2.60859966      -0.17461833
H       -1.46028748       2.35094858       0.70028244
H       -1.94860293      -2.22093649      -0.23825230
H       -2.07015154      -1.62426379      -1.92256839
H       -2.48310687      -0.16917737       0.58054229
H       -3.49690303       0.37320049      -1.47300724
H        2.41183229      -0.56437216      -1.09180339
H        2.04336713       1.13747140      -0.75460533
H        3.58663575       0.25557834       1.01313240
H        2.40457281      -0.52943768       3.04504365
H        0.85758765      -0.81718801       2.03512314
