32
Properties=species:S:1:pos:R:3 pbc="F F F"
C       -0.53670278       1.38156254       1.89163343
C       -1.07710117       0.75413850       0.62722783
C       -2.34023552       0.14720712       0.68270619
C       -2.89294819      -0.44649362      -0.45281583
C       -2.16574206      -0.42723959      -1.65269748
C       -0.90170550       0.18663024      -1.68701652
O       -0.25646671       0.19225625      -2.77384235
N       -0.36859248       0.77025651      -0.55802362
C        0.97479828       1.39314805      -0.62540401
C        2.03381110       0.48591880      -0.04586366
C        2.17717878      -0.83487577      -0.50670354
C        3.17397844      -1.66212731       0.01974367
C        4.04275327      -1.17628863       0.99993371
C        3.91973633       0.13983867       1.45177591
C        2.92476565       0.97088422       0.92798798
C       -2.70476876      -1.03537034      -2.85100032
N       -3.13574882      -1.52155868      -3.80868837
C       -4.25112268      -1.09498147      -0.37136242
H       -1.24014856       1.26743596       2.74372145
H        0.41385551       0.89326476       2.18390719
H       -0.37512561       2.46860855       1.74134987
H       -2.89495972       0.13675338       1.61367417
H        1.26318193       1.64133154      -1.66895757
H        0.96382877       2.37630529      -0.10941777
H        1.52084862      -1.22732767      -1.27152090
H        3.27486693      -2.67970567      -0.33502198
H        4.81410990      -1.81799480       1.40572424
H        4.59713139       0.51734516       2.20682766
H        2.84626091       1.98951303       1.28709231
H       -4.16824920      -2.17159756      -0.63019994
H       -4.94578754      -0.60058159      -1.08269005
H       -4.68570051      -1.01625588       0.64792072
