28
Properties=species:S:1:pos:R:3 pbc="F F F"
C       -2.73645972      -1.22383895      -0.14642604
C       -3.96817544      -1.77651193       0.21446622
C       -5.04193798      -0.94756314       0.55546404
C       -4.88188120       0.44765932       0.52502061
C       -3.64718272       0.99888677       0.16213328
C       -2.56047452       0.17100452      -0.15711293
N       -1.31152255       0.76698477      -0.54811602
C       -0.02266645       0.20775144      -0.25239035
O        0.08270636      -0.75805936       0.55177215
N        1.14512216       0.75817521      -0.88060063
C        2.49456378       0.43310632      -0.50471067
C        3.49417229       0.40353780      -1.48865634
C        4.82083758       0.11183846      -1.14969997
C        5.16044674      -0.13864786       0.19011810
C        4.17142150      -0.08636489       1.17779066
C        2.84772631       0.20402064       0.83673189
Cl       6.81482243      -0.50636400       0.65913199
Cl       6.03514957       0.06987273      -2.42095417
Cl      -6.20931620       1.52650586       0.93295091
Cl      -6.57618775      -1.68088317       1.00319876
H       -1.93404358      -1.88658243      -0.44125299
H       -4.08950097      -2.85236985       0.22000063
H       -3.52877910       2.07525447       0.13817491
H       -1.33606222       1.71172350      -0.99446121
H        1.00086542       1.36056032      -1.72243252
H        3.23712846       0.59788902      -2.52273456
H        4.42931727      -0.26226246       2.21450199
H        2.10991052       0.27467689       1.62455100
