40
Properties=species:S:1:pos:R:3 pbc="F F F"
C        8.08525607      -0.71014392       1.06080604
C        6.96323655      -0.68424810       0.03546723
O        5.71113535      -0.55310353       0.70349586
C        4.46874753      -0.49697327       0.05474568
C        3.31554194      -0.36678357       0.83650751
C        2.05327097      -0.30628413       0.23860001
C        1.92816428      -0.37589695      -1.16170178
C        3.08134143      -0.50614519      -1.94345141
C        4.34362076      -0.56665251      -1.34552666
O        0.68582451      -0.31958797      -1.81047894
C       -0.56608224      -0.18729097      -1.14243582
C       -1.69069828      -0.16454143      -2.17267476
O       -2.96097193      -0.09668094      -1.52766423
C       -3.47411297       1.07240902      -0.95098863
O       -2.83216628       2.15567859      -1.03804859
C       -4.77433788       1.03537637      -0.24564288
C       -5.31018228       2.20073404       0.33343705
C       -6.53832433       2.15939518       0.99951264
C       -7.24486183       0.95871492       1.09616635
C       -6.72380420      -0.20801263       0.52535707
C       -5.49266295      -0.17018902      -0.14331704
C       -7.45234838      -1.44569388       0.62562490
N       -8.03790617      -2.44061476       0.70618409
H        7.94945243      -1.57028426       1.75016517
H        8.08398390       0.23226975       1.64847597
H        9.06299857      -0.81224579       0.54446505
H        6.98173827      -1.63036633      -0.54771025
H        7.11667156       0.17747585      -0.64970984
H        3.39857542      -0.31217134       1.91468456
H        1.18348910      -0.20563238       0.87322013
H        2.99828400      -0.56074638      -3.02162664
H        5.21346311      -0.66739342      -1.98003709
H       -0.57675387       0.75693932      -0.55700977
H       -0.71722521      -1.04931113      -0.45683007
H       -1.56386427       0.69398766      -2.86790631
H       -1.64956075      -1.10006613      -2.76978790
H       -4.78143790       3.14371888       0.27224817
H       -6.94308300       3.06055868       1.44189523
H       -8.19573630       0.93988335       1.61518133
H       -5.09867474      -1.08008171      -0.58101629
