35
Properties=species:S:1:pos:R:3 pbc="F F F"
C       -4.70320892       1.55376029       1.03588058
C       -4.79684214       1.04566497      -0.39882254
O       -3.50010353       0.74465819      -0.91498832
C       -2.72829608      -0.38430232      -0.58897224
C       -3.22297243      -1.43166443       0.21466678
C       -2.41861559      -2.53382094       0.51078997
C       -1.12005460      -2.60766669       0.00845910
C       -0.61971945      -1.57989452      -0.79273934
C       -1.41958747      -0.45967954      -1.09594905
O       -0.95577359       0.59902976      -1.89617607
C        0.36694425       0.72269340      -2.41860142
C        1.34185348       1.02338870      -1.31916045
O        1.11280211       1.99190958      -0.54539551
N        2.52931500       0.22955275      -1.16870904
C        3.47090838       0.39744734      -0.10130061
N        3.35218838       1.31707518       0.88219986
N        4.35384098       1.27544501       1.75901096
C        5.26399039       0.31447405       1.48454898
S        4.86452298      -0.52970086       0.08138009
C        6.51018172       0.10933628       2.27570549
H       -4.05422747       2.45404486       1.07561316
H       -4.28006002       0.77481607       1.70261916
H       -5.71574892       1.82434642       1.40230173
H       -5.24225756       1.84762198      -1.02433771
H       -5.46702409       0.16296913      -0.46746558
H       -4.22623494      -1.40918741       0.61456489
H       -2.80430950      -3.33402665       1.12933604
H       -0.50014591      -3.46478338       0.23811811
H        0.38776671      -1.66974214      -1.17188233
H        0.64629606      -0.19614581      -2.97680053
H        0.38364447       1.56605902      -3.13975896
H        2.71673126      -0.52711488      -1.86410010
H        6.34719979       0.42129147       3.32861431
H        6.79703171      -0.96284398       2.25885608
H        7.32996453       0.71498910       1.83704907
