29
Properties=species:S:1:pos:R:3 pbc="F F F"
C        4.13693865      -0.87599069      -0.31373322
C        3.52242697      -2.03868480      -0.77919900
C        2.13085819      -2.11799339      -0.83765229
C        1.34568837      -1.03793520      -0.41841469
C        1.95414000       0.13653455       0.09123922
C        3.36460774       0.20861130       0.11253241
C        1.11697820       1.19826735       0.52311184
C       -0.27364720       1.07172708       0.37510022
C       -0.83011311      -0.10198991      -0.15730728
N       -0.00538316      -1.11932050      -0.52094977
C       -2.29842872      -0.27183184      -0.30635697
C       -3.14660700       0.82711721      -0.53755843
C       -4.52119068       0.62307116      -0.68155094
N       -5.03742255      -0.63133037      -0.60582705
C       -4.24543550      -1.71446139      -0.39336122
C       -2.86551716      -1.55661226      -0.24492973
C        1.63016994       2.43289450       1.16125686
O        2.58989478       2.38651896       1.97656420
O        1.00386983       3.65115003       0.91199379
H        5.21723264      -0.81110761      -0.29036046
H        4.12603094      -2.87444281      -1.10889960
H        1.66290684      -3.01740712      -1.21890868
H        3.88644556       1.09939415       0.42794961
H       -0.91957906       1.86722643       0.72481085
H       -2.75568372       1.83144283      -0.63151627
H       -5.17790697       1.46391264      -0.86076908
H       -4.68710115      -2.70056071      -0.33943111
H       -2.24969164      -2.43035022      -0.07118471
H        1.32551898       4.50215065       1.35759410
