34
Properties=species:S:1:pos:R:3 pbc="F F F"
C        5.57767507       0.32872867       1.43874237
C        5.02181125      -0.45342334       0.25342237
C        3.53506185      -0.25226208       0.13209072
C        2.64805288      -1.09629328       0.81645524
C        1.26777896      -0.89191331       0.72986379
C        0.75084280       0.16969193      -0.03793526
C        1.64432922       1.01897519      -0.70982105
C        3.02400505       0.81388109      -0.62237801
N       -0.66527259       0.40884905      -0.14871408
C       -1.67837431      -0.41894128       0.51024476
C       -3.06591014       0.11519312       0.26795639
C       -3.61115244       1.34071064       0.65589673
C       -4.94887612       1.61471732       0.31967173
C       -5.71542414       0.66555309      -0.38850300
C       -5.15032748      -0.56486583      -0.76427683
C       -3.82197441      -0.80513796      -0.41806614
C       -2.97830800      -1.94949145      -0.64281021
O       -3.30802387      -3.00722420      -1.23996795
O       -1.72346725      -1.71834096      -0.09462735
H        5.38631097       1.41527758       1.30742916
H        6.67382164       0.16679412       1.51009402
H        5.10491515      -0.01541868       2.38347161
H        5.25209820      -1.53304671       0.38612571
H        5.53022769      -0.11925098      -0.67720857
H        3.02592178      -1.91333711       1.41878978
H        0.61443171      -1.56591711       1.26602981
H        1.27073157       1.84551421      -1.30121324
H        3.69420501       1.48738736      -1.14224992
H       -0.98328306       1.20403329      -0.74984685
H       -1.48607496      -0.49487330       1.60187780
H       -3.01806051       2.06338703       1.20102436
H       -5.39302230       2.55876169       0.60723339
H       -6.74452620       0.88482496      -0.64158788
H       -5.73014302      -1.30254274      -1.30362697
