37
Properties=species:S:1:pos:R:3 pbc="F F F"
B        5.80701941       0.97307197       0.29963347
C        4.28445800       0.56669125       0.28250635
C        3.28884067       1.55218909       0.19172373
C        1.93834817       1.19109249       0.17582273
C        1.56411799      -0.15885391       0.26050669
C        2.55992585      -1.14470484       0.33722669
C        3.91072988      -0.78463171       0.35314066
C        0.11100044      -0.54860376       0.20805208
C       -0.34447958      -0.73091046      -1.24522822
C       -1.77625984      -1.28074479      -1.35997263
C       -2.85648819      -0.29799414      -0.86006958
C       -3.38843855      -0.68065325       0.53230088
C       -4.30719416       0.39565516       1.13016432
C       -5.63842834       0.51510414       0.38903929
O        6.84405875      -0.05286246       0.39425440
O        6.19671116       2.37983015       0.22142425
H        3.55078157       2.60148844       0.12961274
H        1.18371070       1.96393892       0.09598623
H        2.29014379      -2.19263526       0.38307932
H        4.65958373      -1.56476558       0.41728061
H       -0.49633159       0.24238255       0.69796737
H       -0.04597210      -1.49305002       0.77413129
H       -0.27145066       0.23793049      -1.78689264
H        0.33911986      -1.44903136      -1.74988100
H       -1.96468248      -1.48507392      -2.43687437
H       -1.84876600      -2.26085919      -0.83862686
H       -3.70463540      -0.32067982      -1.57779805
H       -2.46495510       0.74294182      -0.84964601
H       -2.53766566      -0.82705156       1.22981227
H       -3.93442334      -1.64768509       0.47121398
H       -3.79136463       1.38044079       1.13117928
H       -4.52002726       0.12750646       2.18774992
H       -6.14247706      -0.47310850       0.33314794
H       -6.30172437       1.21956921       0.93374593
H       -5.48285580       0.91045192      -0.63612575
H        6.99682735      -0.16637077       1.36632605
H        6.29324280       2.55998556      -0.74778861
