9
Properties=species:S:1:pos:R:3 pbc="F F F"
C        2.04031834      -0.13620677       0.08602576
N        3.18982249      -0.00314804       0.08512531
C        0.61265869      -0.30132843       0.08711245
N       -0.03044226      -1.45755648       0.34216705
O       -1.30453462      -1.18077252       0.24333248
N       -1.53860249       0.06584339      -0.05619616
C       -0.33941813       0.65045165      -0.16203432
O       -0.14990814       1.86351009      -0.44246165
H       -2.47989388       0.49920709      -0.18307093
