36
Properties=species:S:1:pos:R:3 pbc="F F F"
C        2.71723717       0.91396920       1.69214385
C        2.28414586       0.03775636       0.49329221
C        2.61804915       0.77629893      -0.82477221
C        3.11784840      -1.26500922       0.53868711
C        0.75888276      -0.32708235       0.59439328
C       -0.19276323       0.91069369       0.75507954
C       -1.53912574       0.84378840       0.04385434
C       -2.04517041       2.01955277      -0.54364357
C       -3.28274563       2.02158689      -1.18915782
C       -4.04040306       0.85407824      -1.25206098
C       -3.56716641      -0.31827670      -0.66273048
C       -2.32756931      -0.33474344       0.00081877
C       -1.83639273      -1.62100073       0.60714081
C       -0.64876669      -2.19778349      -0.18446609
N        0.37278282      -1.19547644      -0.53777978
H        3.81681761       1.07699921       1.68227335
H        2.23733430       1.91374364       1.66461947
H        2.44908428       0.42296900       2.65239435
H        2.35463851       0.15633219      -1.70747167
H        2.08496213       1.74426563      -0.90657858
H        3.70675345       0.99376711      -0.88023154
H        2.91387916      -1.83110762       1.47324629
H        4.20608308      -1.04039380       0.50307197
H        2.88063053      -1.92230534      -0.32507243
H        0.66935438      -0.91238560       1.53956847
H       -0.39208013       1.06613723       1.83750739
H        0.32551214       1.82885313       0.41906803
H       -1.47910469       2.94212621      -0.50557897
H       -3.65488467       2.93171710      -1.64169598
H       -4.99780106       0.85753821      -1.75700086
H       -4.17107388      -1.21518972      -0.72439533
H       -2.64573566      -2.38304689       0.63441541
H       -1.55375821      -1.44421988       1.66645289
H       -1.03079654      -2.66502798      -1.11854545
H       -0.17424288      -3.00613611       0.41252109
H        0.06558518      -0.63298781      -1.36557428
