21
Properties=species:S:1:pos:R:3 pbc="F F F"
C       -1.93180690      -1.49532563      -0.11543187
C       -1.15394256      -0.19704169      -0.03088364
C       -1.81213587       1.05538268      -0.05701986
C       -1.04542833       2.22927444       0.02427188
O       -1.60276233       3.35990080       0.00349498
O        0.27505210       2.16719190       0.12403357
C        0.94663036       1.02263414       0.15327639
C        0.25924094      -0.21349859       0.07684775
C        1.00741072      -1.41033583       0.11093780
C        2.40074419      -1.37296648       0.21818969
C        3.06674791      -0.14865285       0.29275432
C        2.34542499       1.04696207       0.26069411
Cl       3.20917499       2.57469026       0.35623781
Br       3.39775692      -3.00188232       0.26296080
C       -3.25175136       1.16015464      -0.16506806
N       -4.40271926       1.24560742      -0.25142029
H       -1.74623274      -2.10148250       0.79614501
H       -3.02692798      -1.34956374      -0.19634941
H       -1.60807330      -2.06658765      -1.01080329
H        0.52755415      -2.37774163       0.05556729
H        4.14604335      -0.12671945       0.37569758
