40
Properties=species:S:1:pos:R:3 pbc="F F F"
C        4.69463520      -0.39071636       2.60715237
C        4.58701512       0.75142518       1.80897259
C        3.53666519       0.87023052       0.89365427
C        2.59425989      -0.16415873       0.75962340
C        2.69637756      -1.29815203       1.58143124
C        3.74810862      -1.41299214       2.49593801
C        1.45661286      -0.03406869      -0.17511598
N        0.20098091      -0.14023695       0.33580056
C       -0.91085196       0.00056259      -0.43454843
N       -0.77221470       0.25723023      -1.76207762
C        0.45110730       0.36072184      -2.34019642
C        1.61855514       0.20339401      -1.55941397
C        2.87690280       0.25354654      -2.19367304
C        2.96434272       0.49777438      -3.56883806
C        1.80309377       0.68029932      -4.32509418
C        0.54973691       0.60675712      -3.71400273
Cl       4.53470544       0.56616859      -4.34795380
C       -2.26206683      -0.11926544       0.17031402
C       -3.41496095       0.03725290      -0.61970547
C       -4.69703899      -0.07463077      -0.05719624
C       -4.81958891      -0.34737465       1.31601471
C       -3.68119483      -0.50785669       2.12432127
C       -2.40830518      -0.39198772       1.54225559
N       -3.81423433      -0.78762184       3.53098789
O       -4.94216618      -0.89209808       4.05634515
O       -2.69918725      -0.94505349       4.32218235
N       -5.86821344       0.08852020      -0.87964228
O       -7.01158164      -0.00928906      -0.38741148
O       -5.74792538       0.35545322      -2.22439534
H        5.50722733      -0.48052963       3.31642061
H        5.31400561       1.54761185       1.90385666
H        3.45396536       1.76905016       0.29489124
H        1.96686256      -2.09557770       1.50807251
H        3.82763825      -2.29336350       3.12050129
H        3.79144651       0.08906426      -1.64086633
H        1.87047376       0.86809446      -5.38912888
H       -0.34479449       0.73350358      -4.31142716
H       -3.31685257       0.24726390      -1.67680993
H       -5.80402652      -0.43514357       1.75701613
H       -1.52951466      -0.51552523       2.16174550
