19
Properties=species:S:1:pos:R:3 pbc="F F F"
C       -3.41766517       0.74612865      -0.07515860
C       -2.03293167       0.28290641       0.24652481
N       -0.95900115       0.90099559      -0.33237070
C        0.28749205       0.46270695      -0.03214028
N        1.43460046       0.96033922      -0.52326726
C        2.34505694       0.16434735       0.10201758
N        1.78209357      -0.77312579       0.90552011
N        0.48682234      -0.55395542       0.80575204
C       -0.52664989      -1.21771720       1.41242808
C       -1.83622755      -0.79921183       1.13582319
Cl      -0.21699410      -2.55641018       2.50534289
C        3.81599467       0.25327619      -0.14475941
F        4.15225831      -0.56205444      -1.20865154
F        4.16682607       1.55775539      -0.44092127
F        4.50878158      -0.15550780       0.98015947
H       -3.38738242       1.63739837      -0.73729667
H       -3.95098050       1.01608745       0.86059256
H       -3.97227131      -0.06495614      -0.59200782
H       -2.67982225      -1.29900277       1.59580162
