14
Properties=species:S:1:pos:R:3 pbc="F F F"
C       -1.96235610      -0.26427924      -0.28025423
C       -1.69373088       0.30974116       0.94553868
C       -0.35446844       0.50518592       1.26477761
C        0.65575709       0.15773178       0.64197483
C        0.31411023      -0.45975876      -0.88359333
C       -1.03131402      -0.66164731      -1.21662830
I        2.55340549       0.32088110       0.16159166
Cl       3.85493388      -1.47595606       0.16224066
Cl       3.38789296       2.28924034      -0.37689762
H       -3.01901741      -0.42066371      -0.53690344
H       -2.47664834       0.59545533       1.62768394
H       -0.04655146       0.94594559       2.19799247
H        1.11928893      -0.73884045      -1.55333779
H       -1.30130192      -1.10303571      -2.15418514
