44
Properties=species:S:1:pos:R:3 pbc="F F F"
C        4.52396225       0.64347207       1.08968818
C        3.41514686      -0.16550198       0.42092472
C        2.05302014       0.53194060       0.56646531
C        0.91383690      -0.12624014      -0.27835180
C       -0.39715613       0.73306096      -0.27238571
N       -1.21440457       0.43881396       0.91509425
C       -1.73402127      -0.94553865       0.92457995
C       -0.91472822      -1.91896553       0.04267978
C        0.60498659      -1.62416596       0.13744220
C        1.34333357      -2.60377982      -0.80587006
O        1.02140890      -1.84878403       1.46746071
C       -3.17080407      -0.94268139       0.49125951
C       -4.17197268      -1.73910622       1.01079870
C       -5.30621616      -1.42300847       0.29464750
C       -4.92703621      -0.46003290      -0.61871220
O       -3.64816637      -0.19714429      -0.47929764
C       -0.16306728       2.21562521      -0.38668569
C        0.13792018       2.89342731      -1.55147433
C        0.30060915       4.21106650      -1.18243562
C        0.09300323       4.25564360       0.18142369
O       -0.17880403       3.05093390       0.62738536
H        5.48994776       0.10531982       0.98802831
H        4.62194561       1.63944495       0.60749355
H        4.30422346       0.77863814       2.17024904
H        3.66331169      -0.28695057      -0.65576988
H        3.39036884      -1.16541759       0.89992756
H        1.76607645       0.57112264       1.63931129
H        2.20064736       1.57904245       0.22884926
H        1.26466559      -0.11001213      -1.33555009
H       -0.98860392       0.46565813      -1.17781208
H       -0.63505604       0.59059736       1.77445431
H       -1.69812863      -1.32736580       1.97123567
H       -1.23928198      -1.84096613      -1.02003496
H       -1.12811906      -2.96322462       0.36318626
H        1.02671835      -2.44628894      -1.85947747
H        2.44100233      -2.47186763      -0.75084460
H        1.11561397      -3.65660247      -0.53275149
H        0.84875416      -2.80028321       1.69455518
H       -4.08581695      -2.46487320       1.80866267
H       -6.29319327      -1.84762057       0.41970375
H       -5.57235620       0.01367901      -1.34619562
H        0.23508523       2.47747410      -2.54555528
H        0.54636772       5.04178519      -1.83013834
H        0.14497677       5.13967636       0.80256168
