8
Properties=species:S:1:pos:R:3 pbc="F F F"
C       -0.70710581      -0.04575770       0.18571351
O       -1.06459034       0.19395403       1.36972202
C        0.70710591       0.04575775      -0.18571346
O        1.06459009      -0.19395401      -1.36972233
O        1.65692835       0.39747272       0.76860954
O       -1.65692844      -0.39747238      -0.76860936
H        2.63803510       0.46439416       0.52517152
H       -2.63803487      -0.46439458      -0.52517144
