26
Properties=species:S:1:pos:R:3 pbc="F F F"
C       -3.37561825       1.94826465       0.40767845
C       -4.26587112       1.21908169      -0.38413409
C       -3.94549289      -0.08261326      -0.77815665
C       -2.72894880      -0.65579772      -0.39168675
C       -1.81543464       0.08421714       0.38511237
C       -2.15910948       1.38071127       0.79793393
N       -0.56555586      -0.47967744       0.81183326
C        0.31680562      -1.20013991      -0.06192994
O        0.10146582      -1.23474262      -1.30397179
C        1.55370810      -1.84061701       0.48634633
C        2.66164823      -0.83896299       0.55280320
C        3.51941536      -0.50467362      -0.48725011
C        4.41300993       0.52053653      -0.15496490
C        4.25246727       1.00320072       1.13783481
S        2.99567939       0.15570025       1.86695517
F       -2.46932189      -1.94289498      -0.73298434
H       -3.62877370       2.95295066       0.72075744
H       -5.20866126       1.65851185      -0.68335836
H       -4.64693339      -0.65230491      -1.37410530
H       -1.47649971       1.95488239       1.41193047
H       -0.21598759      -0.23323729       1.76555404
H        1.34975214      -2.24067861       1.50234321
H        1.85709795      -2.69343532      -0.15871484
H        3.49637113      -0.98064484      -1.45886892
H        5.15307244       0.90685152      -0.84296085
H        4.83171521       1.79551184       1.59214118
