27
Properties=species:S:1:pos:R:3 pbc="F F F"
C       -4.44827325      -0.26718524       0.68297011
C       -4.10546591       0.95906771       0.07583827
C       -2.77486817       1.24081761      -0.22127804
C       -1.78201197       0.29162708       0.09025203
C       -2.11049914      -0.93543093       0.69594944
C       -3.45924217      -1.19843893       0.98673363
C       -1.04145650      -1.92740549       1.01756527
O       -1.30018368      -3.01964330       1.55247725
C        0.29973731      -1.52317867       0.66278303
C        0.56234455      -0.31423923       0.07371804
N       -0.45490118       0.55280612      -0.19696444
C        1.95384020       0.05939691      -0.27332515
N        2.87319944      -0.85893592       0.03324823
C        4.16491002      -0.66558835      -0.21832341
C        4.60908387       0.53145333      -0.82476509
C        3.66610781       1.51474831      -1.15823783
C        2.31766137       1.28272162      -0.88173491
Cl       6.27109993       0.77872711      -1.14776208
H       -5.48950046      -0.49069415       0.91686798
H       -4.88237484       1.68570104      -0.16052789
H       -2.48211597       2.18241989      -0.69118987
H       -3.70542409      -2.15070454       1.45568952
H        1.13514644      -2.18319332       0.86113966
H       -0.24654714       1.44175040      -0.63203636
H        4.87378029      -1.44559660       0.05113672
H        3.99687060       2.43710649      -1.62407330
H        1.55908264       2.02189108      -1.12615081
