23
Properties=species:S:1:pos:R:3 pbc="F F F"
C       -4.06693812       0.09587116       0.00582649
C       -3.55603438       1.37932135       0.28674582
C       -2.18054791       1.58529543       0.34636474
C       -1.28066952       0.51710357       0.12745251
C       -1.81476571      -0.76751695      -0.15397905
C       -3.19216384      -0.97311969      -0.21354144
C       -0.88960110      -1.87089784      -0.38015380
O       -1.16806775      -3.02080712      -0.62983084
O        0.48024670      -1.56945181      -0.30012781
C        0.87245921      -0.28007261      -0.01927085
N        0.08310557       0.72320508       0.18696748
C        2.31001659      -0.17630538       0.01913118
C        3.05319531       0.95221729       0.26944336
C        4.45620494       0.68189454       0.22725260
C        4.73531151      -0.64920824      -0.05500616
S        3.31525964      -1.58339251      -0.27125880
H       -5.14439050      -0.06909721      -0.04165062
H       -4.23665197       2.21388809       0.45803261
H       -1.74008853       2.56094655       0.56049800
H       -3.54542043      -1.97955473      -0.43329814
H        2.58017695       1.90700919       0.46883858
H        5.21728875       1.43876599       0.39808320
H        5.71207459      -1.11609415      -0.14413198
