17
Properties=species:S:1:pos:R:3 pbc="F F F"
C       -2.41530811      -0.30155536       0.61130561
C       -1.25106831      -0.58087740      -0.27639256
O       -0.87277405      -1.70267560      -0.60474957
C       -0.45387517       0.63803909      -0.73992709
N        0.88325680       0.53052373      -0.13596030
C        2.01055787       0.12575327      -0.98246494
O        3.05985357       0.72478820      -1.04420575
N        1.67174720      -1.00577552      -1.64944749
N        1.23712060       1.61337060       0.64367449
O        2.31110321       1.47340998       1.20362012
H       -2.91448612      -1.24137553       0.85770285
H       -2.07658035       0.18659880       1.53584771
H       -3.12330046       0.37015562       0.10919592
H       -0.38379231       0.58488831      -1.83893107
H       -0.92302225       1.57005635      -0.41124912
H        0.82163686      -1.50792780      -1.37565810
H        2.41893101      -1.47739673      -2.13236050
