12
Properties=species:S:1:pos:R:3 pbc="F F F"
C       -1.32945741       0.57717433       0.02099417
O       -2.45320981       1.06504340       0.03874371
N       -0.17542767       1.32211732       0.00473898
N        1.08556628       0.77466596      -0.01517319
C        1.32945731      -0.57717429      -0.02099545
O        2.45321014      -1.06504343      -0.03873777
N        0.17542753      -1.32211740      -0.00475074
N       -1.08556634      -0.77466599       0.01516705
H       -0.28117283       2.32220495       0.00793051
H        1.88831430       1.38033794      -0.02632951
H        0.28117297      -2.32220505      -0.00792362
H       -1.88831446      -1.38033774       0.02633586
