17
Properties=species:S:1:pos:R:3 pbc="F F F"
C       -1.54257368      -0.60702290       0.70270931
C       -1.60239780      -0.12860204      -0.72071717
O       -2.54961366      -0.45807056      -1.41801385
C       -0.53971511       0.76308220      -1.31561111
N        0.61799807       0.91214088      -0.42902338
C        1.73496222      -0.00340853      -0.49670610
O        2.85096154       0.32569025      -0.01281904
N        1.60523698      -1.28740906      -1.11438823
N        0.60107085       1.98166845       0.48698678
O        1.49165307       2.13002703       1.34922337
H       -2.43435934      -1.22339420       0.94587188
H       -0.63502785      -1.22624993       0.85752658
H       -1.51774921       0.26353464       1.39057904
H       -0.21672900       0.35852086      -2.29918585
H       -0.98671544       1.76125179      -1.51374499
H        0.68777080      -1.64470121      -1.45812480
H        2.43522757      -1.91705768      -1.18456221
