7
Properties=species:S:1:pos:R:3 pbc="F F F"
C       -0.77212087      -0.14450480      -0.13197891
C        0.63683398       0.28903851      -0.03515173
O       -0.23024898       0.34602185       1.07176878
Br       1.92935052      -1.13961877       0.16284273
H       -1.47904467       0.58313187      -0.58196290
H       -0.97424971      -1.23418950      -0.06860251
H        0.88947973       1.30012084      -0.41691546
