19
Properties=species:S:1:pos:R:3 pbc="F F F"
C        0.10984634       0.94160288      -0.82078805
C       -1.38683278       1.25479891      -0.62741510
O       -2.14586151       0.06365991      -0.56408106
C       -1.80854776      -0.66089951       0.60719215
C       -0.28626024      -0.87469010       0.75231383
N        0.39692815      -0.46867398      -0.48865138
C        1.84413339      -0.76960515      -0.47579856
C        2.57104818      -0.07590199       0.60393728
N        3.14140347       0.46835073       1.45105477
H        0.70583295       1.63618057      -0.18821411
H        0.38410415       1.12241798      -1.88310752
H       -1.54149668       1.86890849       0.28993474
H       -1.74926725       1.86232708      -1.48367482
H       -2.21579178      -0.14682399       1.50656782
H       -2.30714399      -1.65185429       0.55034253
H       -0.08419405      -1.94769691       0.96561380
H        0.08334282      -0.27500361       1.61449327
H        1.99443300      -1.86402553      -0.35941505
H        2.29432359      -0.48307149      -1.45030453
