18
Properties=species:S:1:pos:R:3 pbc="F F F"
C        1.76324237      -0.94287935       0.45654971
C        3.08588557      -0.68479120       0.12616971
S        3.11216529       0.60068532      -0.95482648
C        1.45158269       0.84817194      -1.01180470
C        0.84772211      -0.07814871      -0.16565277
C       -0.61480473      -0.20357385      -0.00246516
C       -1.50993924       0.86336601       0.16737944
S       -3.06871611       0.23218931       0.21537006
C       -2.64032047      -1.38046763       0.03764958
C       -1.25861637      -1.45216990      -0.06251508
C       -1.20674177       2.28842444       0.38688091
O       -0.04388596       2.66523981       0.68601094
O       -2.22612301       3.22917548       0.31209419
H        1.47227030      -1.73516012       1.13412829
H        3.94725172      -1.22524684       0.49444820
H        0.94368228       1.58353666      -1.62168410
H       -3.32130233      -2.21997921       0.00383700
H       -0.73335236      -2.38837216      -0.20156974
