18
Properties=species:S:1:pos:R:3 pbc="F F F"
C        1.85722822       1.34463175      -0.07975468
C        0.49846320       1.63424147      -0.18616411
C       -0.47431749       0.61760393      -0.08153721
C       -0.03976005      -0.73643779       0.06781966
C        1.34106097      -0.99498688       0.20290023
C        2.27823128       0.03502371       0.12570473
Br       4.14149495      -0.35214709       0.29356512
C       -1.00561553      -1.90707271       0.15962499
F       -1.99991409      -1.80509198      -0.79470784
F       -1.57564218      -1.93713939       1.41883293
F       -0.35891567      -3.11350004      -0.05084958
C       -1.93927697       1.00522959      -0.20428776
F       -2.70870885       0.33566656       0.72816737
F       -2.12283644       2.36089887       0.01126486
F       -2.39078517       0.70571430      -1.47624669
H        2.58393738       2.14374268      -0.15258826
H        0.21246219       2.66553885      -0.34808116
H        1.70289425      -2.00191584       0.36633741
