16
Properties=species:S:1:pos:R:3 pbc="F F F"
C        0.26970248      -0.52453585       0.40037643
C       -1.00272151      -0.19859716      -0.12908097
N       -1.15420007       0.95211196      -0.84409290
C       -0.09893655       1.76979004      -1.09685843
O       -0.26059481       2.82271215      -1.76833998
N        1.13403829       1.45042945      -0.63463018
C        1.34664642       0.32829441       0.09922331
N        2.66734004       0.05093321       0.57476060
N       -2.12813925      -1.07501228       0.01150878
N        0.49540722      -1.65697724       1.25374072
O       -0.40924409      -2.18777638       1.92947972
H       -2.09363596       1.20084165      -1.22988214
H        2.88296704      -0.79926275       1.14078980
H        3.44981781       0.70512016       0.35085754
H       -2.01482915      -2.09604656       0.18841306
H       -3.08361791      -0.74202482      -0.24626536
