18
Properties=species:S:1:pos:R:3 pbc="F F F"
C        1.87083853      -0.70982606      -0.41654406
C        0.72909311      -0.20588366       0.47372542
C       -0.66938663      -0.65042307      -0.04253294
C       -1.55611401       0.61670993      -0.03694371
C       -0.57067978       1.68755965       0.21765016
O       -0.84806235       2.91549671       0.21706740
O        0.69519752       1.21101498       0.47615351
O       -2.16985057       0.81598201      -1.28164113
O       -1.21789408      -1.67227756       0.75303447
O        3.11075563      -0.34086482       0.12388904
H        1.76288599      -0.31184895      -1.45201384
H        1.82823244      -1.81851653      -0.46986641
H        0.89308702      -0.55830073       1.51616530
H       -0.58782107      -1.03289958      -1.08492436
H       -2.30995153       0.60825256       0.78329572
H       -2.91196437       0.15877113      -1.33281298
H       -1.30624975      -1.32259418       1.67834135
H        3.25788391       0.60964817      -0.12204294
