13
Properties=species:S:1:pos:R:3 pbc="F F F"
C        2.45725805      -0.55084860      -0.12118997
S        1.41380477      -0.13655474      -1.55267926
C       -0.05469886       0.09680602      -0.55800559
N       -0.88271811      -0.95036857      -0.31424750
C       -1.99642068      -0.77321499       0.44005428
N       -2.28328763       0.45118418       0.94951053
C       -1.45656635       1.49869511       0.70406323
N       -0.34278918       1.32185616      -0.05020215
Cl      -1.82673612       3.07809637       1.36056132
Cl      -3.06292189      -2.12423860       0.75602056
H        2.06422034      -1.45577712       0.38788565
H        2.48137031       0.29972744       0.59188159
H        3.48948534      -0.75536266      -0.47202097
