14
Properties=species:S:1:pos:R:3 pbc="F F F"
C        0.66551841      -0.65122472       0.79652997
C       -0.08877323      -0.99636721      -0.49116834
S       -1.37298985       0.18737172      -0.88590410
O       -2.36211321      -0.45971681      -1.81348021
O       -0.77688117       1.38293580      -1.57529841
O       -2.17652067       0.67622099       0.50907011
P        1.78548201       0.76793545       0.57770407
O        1.22898983       2.16017726       0.38749492
O        3.45779251       0.53060879       0.62443781
H       -0.04157511      -0.44605706       1.62682904
H        1.28315554      -1.52676798       1.08730842
H       -0.57017551      -1.98878558      -0.35874105
H        0.61882472      -1.07507062      -1.34430007
H       -1.65073428       1.43873996       0.85951784
