14
Properties=species:S:1:pos:R:3 pbc="F F F"
C       -0.67134159       0.17862115      -0.37709242
C       -1.81137422      -0.50235212      -0.19400880
C       -3.17575872       0.00412228      -0.61325193
O       -3.18588415       1.12965522      -1.15825564
O       -4.07618884      -0.82685717      -0.32704893
C        0.66386263      -0.28653686       0.01845837
C        1.75863899       0.47953997      -0.21152829
C        3.20821591       0.22609283       0.09638383
O        3.97779333       1.16554334      -0.25897298
O        3.48593881      -0.86194285       0.65752377
Cl       0.74557165      -1.81584789       0.76767879
H       -0.64973632       1.16486265      -0.85075132
H       -1.79632958      -1.48196531       0.28113694
H        1.52659211       1.42706477      -0.69894164
