28
Properties=species:S:1:pos:R:3 pbc="F F F"
C        2.25048687      -0.37693395      -1.21839565
C        3.23266394      -0.63430665      -0.05447263
C        2.92533205       0.53527954       0.89715147
O        2.35016631       1.60122334       0.15551958
C        1.42571195       0.83259689      -0.68966550
C        0.28950825       0.35198342       0.17363026
C        0.64363027       0.00243408       1.49016258
O        1.92335265       0.10120076       1.94288109
C       -0.34414203      -0.42209029       2.41251233
C       -1.65344527      -0.52508696       2.00873137
C       -2.05603278      -0.21616870       0.67845058
C       -3.39419510      -0.34610031       0.24332742
C       -3.75678387      -0.06016670      -1.06604837
C       -2.78649504       0.37642744      -1.99058848
C       -1.46144871       0.52486541      -1.59846075
C       -1.06354515       0.23268828      -0.26611918
H        2.81667680      -0.07774753      -2.10570061
H        1.63072096      -1.25028940      -1.44237687
H        3.07962907      -1.61116264       0.41359219
H        4.26239041      -0.54987855      -0.41527703
H        3.76868485       0.90383130       1.49702914
H        1.06271374       1.51055619      -1.46699700
H       -0.02524765      -0.65617991       3.42538381
H       -2.41309233      -0.85801923       2.71615729
H       -4.13595321      -0.68288218       0.96990089
H       -4.79368036      -0.17290319      -1.38174916
H       -3.07220820       0.60015241      -3.01824618
H       -0.70539843       0.86667713      -2.31033259
