16
Properties=species:S:1:pos:R:3 pbc="F F F"
C       -0.91636511       1.80477176      -0.16043700
C       -0.81772412       0.46329917      -0.84638250
C       -0.09047475      -0.61511885       0.01573346
O        1.25540282      -0.25108626       0.22870134
C        2.00082411      -1.16297918       1.03945709
O       -2.13989617       0.04996732      -1.15341388
H       -1.43037172       2.51599476      -0.81159981
H        0.08159873       2.18819244       0.06622425
H       -1.48750453       1.70904602       0.76991083
H       -0.23293133       0.57646040      -1.77342777
H       -0.14135870      -1.59043580      -0.51667565
H       -0.64206211      -0.70092884       0.97926440
H        2.03607128      -2.17897969       0.60952472
H        1.59463665      -1.24195861       2.06239767
H        3.01325810      -0.75178408       1.08273266
H       -2.08310317      -0.81446057      -1.59200980
