29
Properties=species:S:1:pos:R:3 pbc="F F F"
C        2.71665653       2.11730203       0.21548153
N        2.17682300       0.76476568       0.11611576
C        1.34598860       0.40343432      -0.88652676
C        0.68478889      -0.80450372      -0.95363470
C        0.89675059      -1.83630585       0.02360975
O        0.30494599      -2.90127682       0.13829928
N        1.89168025      -1.45004345       0.93473805
C        2.48532020      -0.20575752       1.11793142
O        3.21642159       0.04034906       2.06544318
N       -0.45088611      -0.59203308      -1.71656715
C       -0.51466242       0.72509158      -2.16060189
S       -1.89807712       1.46496038      -2.69977766
N        0.67482263       1.28187539      -1.71775295
C       -1.71167318      -1.35907203      -1.53949239
C       -2.51841613      -0.76847446      -0.39692289
O       -1.62171895      -0.34042495       0.61515090
C       -2.21301359       0.15942203       1.79992263
H        1.89783170       2.84042940       0.31395650
H        3.29975737       2.34794673      -0.68302545
H        3.35300378       2.14923845       1.09677506
H        2.10185734      -2.10799017       1.67139264
H        0.88705771       2.27445562      -1.81128196
H       -1.42040765      -2.38545670      -1.30853283
H       -2.25570841      -1.26304410      -2.47971060
H       -3.19771112      -1.54486939       0.00580148
H       -3.07821058       0.09901258      -0.79479681
H       -2.79732675       1.07733837       1.61834248
H       -1.38280997       0.39401837       2.47351093
H       -2.87308415      -0.58038775       2.28639501
