29
Properties=species:S:1:pos:R:3 pbc="F F F"
C       -4.04071008       1.27378575       0.38596657
C       -4.60417966      -0.00205489       0.23372380
C       -3.77686923      -1.10526374       0.04118227
C       -2.36261029      -0.96099550      -0.01301178
C       -1.77711304       0.36014858       0.11678713
C       -2.65695639       1.43650205       0.32565405
C       -0.33984126       0.52171019       0.02780249
N        0.46722282      -0.52315184      -0.15257934
C        1.82633811      -0.47044785      -0.26094262
C        2.48610201       0.78023423      -0.18223163
C        3.88141226       0.88175988      -0.29345979
C        4.64356864      -0.26982246      -0.48746532
C        3.97501613      -1.50183286      -0.55975610
C        2.59975233      -1.63484423      -0.45369897
F        4.73386662      -2.63716761      -0.74157334
N        1.68000615       1.87343322       0.00771175
C        0.28439051       1.86094659       0.12542067
O       -0.29477436       2.93524501       0.29370826
N       -1.60261992      -2.05605703      -0.18283140
H       -4.67617284       2.14468740       0.54841192
H       -5.68571774      -0.13484011       0.26753180
H       -4.19493437      -2.10918542      -0.06935494
H       -2.23251712       2.42866620       0.43688980
H        4.34664719       1.86721266      -0.22468829
H        5.72563605      -0.21897176      -0.57837962
H        2.10293457      -2.60141751      -0.51391339
H        2.09408140       2.79572448       0.07053281
H       -2.02426422      -2.97103481      -0.26613354
H       -0.57769427      -1.96296861      -0.23326949
