24
Properties=species:S:1:pos:R:3 pbc="F F F"
C       -3.95366116      -0.49295089      -0.54289713
C       -2.57801522      -0.28430265      -0.65183499
C       -1.93263240       0.48895819       0.31290828
C       -2.71531391       1.00945871       1.39837043
N       -4.01751075       0.81222469       1.47900519
C       -4.63739931       0.08008297       0.53658440
Cl      -1.96913351       1.86811776       2.68250041
C       -0.47318568       0.84221229       0.17864773
O       -0.05573484       1.99375055       0.20664694
N        0.31534683      -0.27159468      -0.04445307
C        1.69009206      -0.31679256      -0.28915702
N        2.15433216      -1.55355701      -0.47258078
C        3.45329738      -1.72209453      -0.72124856
C        4.34384305      -0.62785094      -0.80435799
C        3.85502683       0.67145726      -0.60250569
C        2.49612642       0.83432035      -0.34240515
Cl       6.00371769      -0.87531740      -1.14868604
H       -4.49855369      -1.08417173      -1.27535847
H       -2.00455380      -0.70104743      -1.48324032
H       -5.71419731      -0.05636343       0.65045731
H       -0.12175228      -1.19076034      -0.02398975
H        3.81214666      -2.73845349      -0.86353369
H        4.52657080       1.52176975      -0.65234046
H        2.02114395       1.79290456      -0.18060714
