23
Properties=species:S:1:pos:R:3 pbc="F F F"
C       -3.58030994       0.61378697       0.68556001
C       -2.83891381       1.28684360      -0.28980644
C       -1.61594296       0.76998008      -0.72162065
C       -1.15797135      -0.42182591      -0.16560117
C       -1.89668624      -1.12290561       0.78711124
C       -3.10922807      -0.59023947       1.22191299
O        0.04712322      -0.99602224      -0.63171479
C        1.25543405      -0.60110874      -0.24350493
C        2.36969747      -1.04851012      -0.90182355
C        3.56748345      -0.37981418      -0.34805778
O        4.67411676      -0.29147976      -0.84205534
C        3.09349601       0.17811656       0.98977744
C        1.58890441       0.45426999       0.72960598
Cl       1.38003694       2.00083857      -0.18126652
Cl       0.55370466       0.48659434       2.18172216
Cl       4.02086017       1.57138343       1.55390724
Cl       3.28341463      -1.19281910       2.13594225
Cl       2.30265906      -2.03824620      -2.27693541
H       -4.53329966       1.02616751       1.02665836
H       -3.20237769       2.22011525      -0.72409557
H       -1.01842722       1.26313101      -1.48710551
H       -1.50187956      -2.06369020       1.17107297
H       -3.68189435      -1.12456580       1.98226228
