24
Properties=species:S:1:pos:R:3 pbc="F F F"
C       -3.30535077      -0.51319840      -1.33608297
C       -2.13969115      -0.30960883      -0.36678020
C       -1.80591440       1.15840260      -0.12589345
C       -0.70064982       1.37770381       0.94553887
C        0.56400680       0.64259309       0.69179625
C        1.19846521      -0.23135945       1.55996122
C        2.37435155      -0.81261594       1.00029979
C        2.64532464      -0.36482066      -0.28070584
S        1.46485292       0.79995447      -0.78014143
C        3.79111223      -0.74410957      -1.13624705
H       -3.57652867      -1.57126013      -1.36782427
H       -4.18807115       0.05525764      -1.02448324
H       -3.03432885      -0.20296046      -2.35048166
H       -1.24766240      -0.82456745      -0.74801863
H       -2.37660468      -0.77959307       0.59752059
H       -2.71097898       1.68685068       0.20586017
H       -1.49275011       1.62777523      -1.06853622
H       -1.06586965       1.06674188       1.93267284
H       -0.46671218       2.45102889       0.99353461
H        0.80745252      -0.44767061       2.55237192
H        3.00375640      -1.53658169       1.51273572
H        3.46505705      -0.89617623      -2.17117663
H        4.23597592      -1.67062337      -0.76119517
H        4.56075755       0.03883755      -1.12880077
