15
Toluene molecule
C       0.0000       0.0000       0.0000
C       1.3960       0.0000       0.0000
C       2.0920       1.2090       0.0000
C       1.3960       2.4180       0.0000
C       0.0000       2.4180       0.0000
C      -0.6960       1.2090       0.0000
C      -2.0920       1.2090       0.0000
H       2.0920      -0.9360       0.0000
H       3.1760       1.2090       0.0000
H       2.0920       3.3540       0.0000
H       0.0000       3.3540       0.0000
H      -0.6960       0.2730       0.0000
H      -2.6790       2.0950       0.0000
H      -2.6790       0.3230       0.0000
H       1.3960      -0.9360       0.0000
