15
Properties=species:S:1:pos:R:3 pbc="F F F"
C       -1.38103667      -1.05764685      -0.74241449
C        0.00984237      -1.07831844      -0.63683792
C        0.69851645      -0.05509375       0.02658090
C       -0.03464137       1.01540700       0.59753439
C       -1.42421561       1.04305723       0.49619513
C       -2.07146432       0.00531826      -0.17229820
F       -3.44365652       0.04446534      -0.26536619
Cl       0.76845398       2.28286322       1.41507247
C        2.17954695      -0.11628964       0.11582852
F        2.78498879       0.97077455      -0.49592833
F        2.62196482      -0.16748813       1.42890123
H       -1.90727895      -1.85699658      -1.25968605
H        0.60778213      -1.88497638      -1.06321829
H       -1.97630640       1.86653616       0.93640588
H        2.56750434      -1.01161199      -0.38076905
