7
Properties=species:S:1:pos:R:3 pbc="F F F"
C       -0.64339959      -0.04005593       0.00705282
C        0.84858150       0.01573759      -0.01373626
O        1.42402436       1.08538422       0.10354469
H       -1.02012624       0.35472864       0.97382561
H       -0.98201418      -1.09045820      -0.11228584
H       -1.05323518       0.56978704      -0.82514532
H        1.42616933      -0.89512335      -0.13325570
