10
Properties=species:S:1:pos:R:3 pbc="F F F"
C       -1.29628697      -0.17949994      -0.16414068
C       -0.03343060       0.50140595       0.27391487
O       -0.10476156       1.57125774       0.85836693
C        1.31499014      -0.10101745       0.01089606
H       -1.08268404      -1.13858407      -0.68052003
H       -1.85186465       0.48229918      -0.86113160
H       -1.93182773      -0.38784434       0.72192999
H        1.83801382      -0.27454183       0.97462624
H        1.91797424       0.59560352      -0.60843413
H        1.22987735      -1.06907876      -0.52550765
