9
Properties=species:S:1:pos:R:3 pbc="F F F"
C       -0.91587960      -0.09837996       0.11992560
C        0.50225436       0.43574276      -0.03967737
O        1.28177556      -0.46383260      -0.77947378
H       -1.37429878      -0.26379200      -0.87808984
H       -1.53111493       0.63552402       0.68191725
H       -0.90164071      -1.05788208       0.67904005
H        0.46623794       1.40527662      -0.57985748
H        0.95600786       0.61507248       0.96142146
H        1.51665829      -1.20772922      -0.16520589
