9
Properties=species:S:1:pos:R:3 pbc="F F F"
C       -1.14553629       0.00075350       0.09825531
O       -0.02675381      -0.85677944       0.09589922
C        1.14270082      -0.09155688      -0.08809190
H       -2.05949698      -0.61100057       0.24354673
H       -1.09286969       0.73038561       0.93701982
H       -1.24833539       0.53253303      -0.87401289
H        1.28477466       0.63447221       0.74338812
H        1.12931176       0.43661146      -1.06764346
H        2.01620491      -0.77541892      -0.08836094
