7
Properties=species:S:1:pos:R:3 pbc="F F F"
C       -0.57343064      -0.00935252      -0.00175541
N        0.83187257       0.03226020      -0.38085923
H       -0.67337619      -0.06492291       1.10426630
H       -1.05690595      -0.89893999      -0.45786170
H       -1.08658013       0.90402212      -0.36995605
H        1.29301068      -0.82001023       0.01220399
H        1.26540966       0.85694332       0.09396210
