11
Properties=species:S:1:pos:R:3 pbc="F F F"
C        1.18139346      -0.45023257      -0.21233658
C        0.01377655       0.52396469      -0.33552568
C       -1.19194996       0.04874536       0.46943165
H        1.49728594      -0.54167913       0.84879285
H        2.04098159      -0.07695783      -0.80790883
H        0.89085393      -1.45128342      -0.59656325
H       -0.27348973       0.61877004      -1.40493254
H        0.32982155       1.52369148       0.03298765
H       -2.02256641       0.77737455       0.35939035
H       -0.92983745      -0.03139455       1.54600959
H       -1.53626948      -0.94099863       0.10065480
