19
Properties=species:S:1:pos:R:3 pbc="F F F"
C        2.77182628      -0.05094775       0.07236241
C        1.46778586       0.64202401      -0.19695356
O        0.49287470      -0.38333172       0.13550063
C       -0.79604230       0.01200576      -0.02446490
C       -1.48198139      -0.94960436      -1.07589405
F       -2.77717443      -0.58406240      -1.31781822
F       -1.46031489      -2.24181146      -0.68008976
F       -0.81077648      -0.85942785      -2.25151158
C       -1.51936234      -0.06429745       1.38003009
F       -1.50838625      -1.31269271       1.89831087
F       -0.87444318       0.75546513       2.24793944
F       -2.81398770       0.36758215       1.29774306
O       -0.86173298       1.32063552      -0.49507778
H        2.85981572      -0.94087297      -0.55400344
H        3.60607301       0.61634451      -0.14131484
H        2.82310770      -0.35896841       1.11854214
H        1.35768147       0.92912136      -1.24921644
H        1.31960673       1.51462968       0.45011992
H       -1.79456956       1.58820896      -0.61420399
