16
Properties=species:S:1:pos:R:3 pbc="F F F"
C        0.80474859       0.83302092      -0.00431349
C       -0.56911619       0.98536062      -0.14068527
C       -1.42957751      -0.11925761       0.01208677
C       -0.87212042      -1.38596444       0.30656340
C        0.49336077      -1.53733256       0.44209414
C        1.35865323      -0.42837954       0.28883900
N        2.72477396      -0.61051016       0.43052736
C        3.75827991       0.05399281       0.37848455
S        5.19414612       0.64873501       0.37137208
N       -2.80358151       0.00231905      -0.11818416
C       -3.63808026       0.87390152      -0.35563489
S       -4.88135628       1.76566684      -0.62866937
H        1.47333697       1.68628674      -0.12201782
H       -1.00079138       1.96062139      -0.36760303
H       -1.55845452      -2.22542825       0.42015644
H        0.94577853      -2.50303234       0.66871469
