19
Properties=species:S:1:pos:R:3 pbc="F F F"
C       -0.93103628      -1.74051913       0.29275490
C       -0.35227829      -0.54442573      -0.44232116
C       -1.32237165       0.62761434      -0.69122317
C       -0.48607991       1.89571064      -0.59413638
C        0.78226755       1.47480115       0.13941820
O        1.66768105       2.19916653       0.56579783
N        0.74441879       0.09977483       0.24891972
C        1.84450482      -0.62767911       0.81632007
H       -1.84309859      -2.06971037      -0.21760426
H       -0.22851443      -2.58141992       0.28758987
H       -1.19194173      -1.49702691       1.33127344
H        0.00049893      -0.90255215      -1.42895041
H       -1.80795496       0.52350744      -1.66525853
H       -2.09829346       0.63478121       0.08374348
H       -0.98336167       2.70080610      -0.04805365
H       -0.21241049       2.26946773      -1.58780475
H        1.98265895      -1.57649950       0.28548636
H        1.67673051      -0.85676048       1.87956921
H        2.75858085      -0.02903667       0.74447921
