13
Properties=species:S:1:pos:R:3 pbc="F F F"
C        2.52721915      -0.56879753      -0.10979198
S        1.35157156      -0.13629086      -1.42769394
C       -0.10430511       0.09910397      -0.47634297
N       -0.90546309      -0.97315769      -0.28868755
C       -2.00594867      -0.71897959       0.41960155
N       -2.36601556       0.47303335       0.93065411
C       -1.48812281       1.46022774       0.67283767
N       -0.35433085       1.34621572      -0.01916341
Cl      -1.88232125       3.00985419       1.30672665
Cl      -3.07955030      -2.02853882       0.72123702
H        2.20153361      -1.48552076       0.39593425
H        2.61698555       0.26284250       0.59910041
H        3.48874776      -0.73999220      -0.60278011
