19
Properties=species:S:1:pos:R:3 pbc="F F F"
C       -3.18922422       0.46169761       1.02808787
N       -2.04142319      -0.09296077       0.35723039
C       -1.99808946      -1.09130924      -0.56872401
C       -0.66344173      -1.25111771      -0.90323269
C        0.03590831      -0.28789537      -0.10499464
N       -0.83707530       0.40474957       0.64879804
N        1.37880386      -0.07516826      -0.02977244
C        2.00770528       0.69658621       0.94806574
O        1.44733979       1.42957781       1.73357784
C        3.52280576       0.51819988       0.89587114
Cl       4.15843890       0.95356523      -0.69761089
H       -3.67201220      -0.29173422       1.66214793
H       -2.82013420       1.28433285       1.64020665
H       -3.92220446       0.82602168       0.29914469
H       -2.88874493      -1.60261631      -0.91668022
H       -0.20547188      -1.93524758      -1.59201257
H        1.96114091      -0.59185500      -0.67626462
H        3.96071527       1.17865596       1.64232446
H        3.76496348      -0.53348233       1.09722613
