19
Properties=species:S:1:pos:R:3 pbc="F F F"
C        0.10474321       0.98255926      -0.81658508
C       -1.37992698       1.27215143      -0.65360791
O       -2.16704333       0.08584714      -0.52812914
C       -1.81275742      -0.69455347       0.61205704
C       -0.30935050      -0.87603232       0.78313064
N        0.40856408      -0.36525359      -0.37083171
C        1.82569207      -0.72919383      -0.42817288
C        2.64643551      -0.09235288       0.60215954
N        3.33239860       0.39667248       1.40703187
H        0.68793234       1.73427289      -0.25378394
H        0.39151583       1.05494569      -1.87590064
H       -1.50580016       1.91733173       0.23866492
H       -1.77109305       1.76901013      -1.55310281
H       -2.21152990      -0.20430156       1.52054629
H       -2.29538588      -1.67251279       0.46932300
H       -0.06297013      -1.94145969       0.87232110
H        0.00085897      -0.36157097       1.71370531
H        1.90242521      -1.82079419      -0.31995623
H        2.21529153      -0.45476548      -1.41886938
