14
Properties=species:S:1:pos:R:3 pbc="F F F"
C        0.76736987      -0.76337021       0.70334179
C       -0.20655426      -1.07369166      -0.42641767
S       -1.26106000       0.28158232      -1.01949124
O       -2.44962461      -0.30469254      -1.57135781
O       -0.43424420       1.16263902      -1.81692173
O       -1.71484561       1.01960032       0.32001855
P        1.48515447       0.88191751       0.72435529
O        0.57077816       1.91281532       1.29324072
O        2.85781525       1.03697884       0.22145564
H        0.26700976      -0.91515092       1.66857836
H        1.60991792      -1.46058460       0.64237988
H       -0.91666653      -1.85462914      -0.13339689
H        0.32671414      -1.40740835      -1.32500706
H       -0.90176435       1.48399410       0.71922216
