18
Properties=species:S:1:pos:R:3 pbc="F F F"
C        1.85750421       1.34687931      -0.10914830
C        0.49446222       1.62710992      -0.23337722
C       -0.45332724       0.61646125      -0.10477622
C       -0.03048464      -0.71638405       0.09113615
C        1.32772691      -0.98464076       0.25306538
C        2.27450901       0.03602319       0.14965022
Br       4.10987000      -0.37686461       0.35320462
C       -0.98538950      -1.88950221       0.14901330
F       -2.01501751      -1.78370214      -0.73246835
F       -1.51315718      -2.03979418       1.40313260
F       -0.34461151      -3.06664022      -0.14876829
C       -1.91880680       0.99963412      -0.19537816
F       -2.69983430       0.32158520       0.68789896
F       -2.10043693       2.33305870       0.07610205
F       -2.41556222       0.78905360      -1.45287436
H        2.58914325       2.14261481      -0.20456996
H        0.16987266       2.64501235      -0.42444855
H        1.65353956      -1.99990428       0.44260612
