16
Properties=species:S:1:pos:R:3 pbc="F F F"
C       -1.42237371      -1.63503421       1.25002393
N       -0.14290712      -1.36440533       1.02041909
C       -0.03233032       0.07756077       0.83241878
C       -1.52286147       0.45430723       0.61628809
N       -2.29806840      -0.57190475       1.03923222
N       -1.85827391       1.50670507      -0.11445900
C       -0.96387852       1.92977824      -1.02222975
N        0.21444174       1.29131679      -1.24644913
C        0.66459884       0.38555880      -0.45430559
S        2.19357689      -0.53690398      -0.94073959
O        1.83543468      -1.76770736      -1.57888160
O        3.15584386       0.36500387      -1.49974137
F        2.77927496      -0.94393151       0.51885820
H       -1.81166124      -2.61157155       1.55871318
H        0.42028382       0.63997633       1.67887391
H       -1.21110008       2.78125160      -1.65802137
