36
Properties=species:S:1:pos:R:3 pbc="F F F"
C       -0.34593843       2.38817000       0.72963594
C        0.95051239       1.60396221       0.48130675
N        0.63284646       0.24817273       0.90571524
C       -0.72326382       0.25639668       1.33419902
N       -1.28423462       1.41199141       1.26452584
S       -1.61660232      -1.18077673       1.93771995
C       -2.21414733      -1.69385968       0.28821601
C       -3.27364259      -0.75391963      -0.21665585
C       -2.98608318       0.17845384      -1.22601220
N       -3.94726954       1.03909182      -1.65593679
C       -5.20171208       1.02895602      -1.13205752
C       -5.53133426       0.12131433      -0.12369679
C       -4.56197074      -0.77177692       0.33624516
C        1.48195255      -0.90001794       0.71621129
O        1.02502987      -2.06256964       0.87957181
C        2.89454247      -0.74293350       0.31837999
C        3.75981514       0.01386053       1.12538934
C        5.10438126       0.16194496       0.77541803
C        5.59821847      -0.44826993      -0.37906463
C        4.74900246      -1.20964396      -1.18559243
C        3.39984256      -1.36455617      -0.84329299
Cl       2.36396803      -2.30490325      -1.91260142
H       -0.18553946       3.20074376       1.47020325
H       -0.74319464       2.80958484      -0.21864656
H        1.77807215       2.02019703       1.09304626
H        1.21899217       1.61539062      -0.59748448
H       -1.36255833      -1.75554537      -0.42313604
H       -2.64238149      -2.71481590       0.37395948
H       -1.99769754       0.22669691      -1.66496225
H       -5.94282337       1.72736205      -1.49704093
H       -6.52777614       0.11175070       0.29865730
H       -4.81212436      -1.47347993       1.12236013
H        3.39761359       0.47629206       2.03530755
H        5.76512789       0.74615005       1.40279430
H        6.64007235      -0.33243555      -0.64852477
H        5.14030444      -1.67697847      -2.08036440
