13
Properties=species:S:1:pos:R:3 pbc="F F F"
C        1.03952354      -0.21580057      -0.49044806
C       -0.00037193       0.13284561       0.56964456
C       -1.47416285      -0.09599694       0.16656879
O       -2.29479413      -0.57466227       0.92425944
O       -1.71611525       0.32055865      -1.09571903
O        0.28677959      -0.60989026       1.71962149
S        2.60637966       0.61090787      -0.13208116
H        0.68523753       0.12268919      -1.47252479
H        1.20672215      -1.30164245      -0.46746137
H        0.06257214       1.21416267       0.76930968
H       -2.66990674       0.17040640      -1.23982639
H       -0.57343013      -0.75041076       2.16873900
H        2.84156640       0.97683286      -1.42008215
