28
Properties=species:S:1:pos:R:3 pbc="F F F"
C       -0.80523998      -2.04644845      -0.05558837
N       -1.07113050      -0.61013091      -0.11579647
C       -2.34703552      -0.03998444      -0.16607194
C       -2.28840163       1.36086552      -0.19116000
C       -3.45581941       2.12030821      -0.24108058
C       -4.66760857       1.42503240      -0.27461916
C       -4.75283334       0.03122036      -0.25700216
C       -3.56757222      -0.71830999      -0.19942702
F       -5.83620431       2.15203385      -0.33135735
S       -0.62607518       1.93948320      -0.14703172
C       -0.02913015       0.27910798      -0.10876547
N        1.20494788      -0.13178043      -0.07693883
C        2.25860575       0.74838994      -0.00088341
O        2.17083982       1.98531772       0.03347240
C        3.58251995       0.08926512       0.07087592
C        3.88226721      -0.92004598       0.96849893
S        5.54772873      -1.41632437       0.89349616
C        5.88252390      -0.18867153      -0.32062590
C        4.76389966       0.54024310      -0.63948089
Cl       7.44985832      -0.01525733      -0.94352013
Cl       2.84241197      -1.68024269       2.08098739
H        0.27825948      -2.17187210      -0.03500092
H       -1.25246238      -2.47336449       0.84971415
H       -1.23331350      -2.54181428      -0.93378676
H       -3.39598589       3.20405877      -0.25329962
H       -5.72100280      -0.46230920      -0.28773365
H       -3.58056178      -1.80836822      -0.18262684
H        4.76651449       1.34959824      -1.35878899
