13
Properties=species:S:1:pos:R:3 pbc="F F F"
C       -0.27124239       1.28686630      -0.36127132
C        1.10054469       1.06914285      -0.46624570
C        1.62053032      -0.19828906      -0.14210521
C        0.76004030      -1.22846030       0.28209901
C       -0.60884778      -0.99751765       0.38265254
C       -1.11890427       0.26190095       0.05972747
N       -2.53536909       0.57248074       0.14177819
O       -3.17661418      -0.39161919       0.51822351
Cl       3.30213945      -0.49108951      -0.26283426
H       -0.72131311       2.24982387      -0.60065532
H        1.76861332       1.86058990      -0.79302179
H        1.16264627      -2.20573603       0.53182455
H       -1.28222354      -1.78809288       0.70982832
